Version 4
SHEET 1 1728 2056
WIRE -512 -128 -544 -128
WIRE -352 -128 -512 -128
WIRE -96 -128 -352 -128
WIRE 1120 -128 800 -128
WIRE 1216 -128 1120 -128
WIRE 1328 -128 1216 -128
WIRE -352 -80 -352 -128
WIRE -352 -80 -384 -80
WIRE -96 -80 -96 -128
WIRE -96 -80 -128 -80
WIRE 800 -80 800 -128
WIRE 800 -80 752 -80
WIRE 1120 -80 1120 -128
WIRE 1120 -80 1072 -80
WIRE -352 -16 -384 -16
WIRE -96 -16 -128 -16
WIRE 800 -16 752 -16
WIRE 1120 -16 1072 -16
WIRE -352 0 -352 -16
WIRE 1216 16 1216 -128
WIRE 1328 16 1328 -128
WIRE -544 32 -544 -128
WIRE -544 32 -656 32
WIRE -352 32 -352 0
WIRE -32 32 -352 32
WIRE 192 32 112 32
WIRE 400 32 304 32
WIRE 1120 32 1120 -16
WIRE 1120 32 464 32
WIRE -656 48 -656 32
WIRE -512 48 -512 -128
WIRE -96 128 -96 -16
WIRE 192 128 192 112
WIRE 192 128 -96 128
WIRE 304 128 304 112
WIRE 800 128 800 -16
WIRE 800 128 304 128
WIRE -656 144 -656 128
WIRE -544 144 -656 144
WIRE 800 160 800 128
WIRE 800 160 752 160
WIRE 1120 160 1120 32
WIRE 1120 160 1072 160
WIRE -352 176 -352 32
WIRE -352 176 -384 176
WIRE -96 176 -96 128
WIRE -96 176 -128 176
WIRE 800 224 752 224
WIRE 1120 224 1072 224
WIRE -352 240 -384 240
WIRE -96 240 -128 240
WIRE 800 272 800 224
WIRE 1120 272 1120 224
WIRE 1120 272 800 272
WIRE 1216 272 1216 80
WIRE 1216 272 1120 272
WIRE 1328 272 1328 96
WIRE 1328 272 1216 272
WIRE -544 288 -544 144
WIRE -512 288 -512 112
WIRE -512 288 -544 288
WIRE -352 288 -352 240
WIRE -352 288 -512 288
WIRE -96 288 -96 240
WIRE -96 288 -352 288
WIRE 864 496 848 496
WIRE -320 512 -336 512
FLAG 1024 352 S5
FLAG 864 352 G5
FLAG 848 496 G7
FLAG -320 368 G1
FLAG -160 368 S1
FLAG -336 512 G3
FLAG -160 512 S3
FLAG 192 128 0
FLAG 304 128 0
FLAG 1024 496 S7
FLAG 688 -48 G1
FLAG 1008 192 G1
FLAG 1008 -48 G3
FLAG 688 192 G3
FLAG 800 272 S3
FLAG 800 -16 S1
FLAG -448 -48 G5
FLAG -192 208 G5
FLAG -192 -48 G7
FLAG -448 208 G7
FLAG -352 288 S7
FLAG -352 0 S5
SYMBOL irf540n 1040 192 R0
SYMATTR InstName U5
SYMBOL irf540n -416 -48 R0
SYMATTR InstName U1
SYMBOL irf540n -160 -48 R0
SYMATTR InstName U3
SYMBOL irf540n -416 208 R0
SYMATTR InstName U4
SYMBOL irf540n -160 208 R0
SYMATTR InstName U2
SYMBOL voltage 928 352 R270
WINDOW 0 32 56 VTop 2
WINDOW 3 -69 42 VTop 2
WINDOW 123 0 0 Left 0
WINDOW 39 0 0 Left 0
SYMATTR InstName V2
SYMATTR Value PULSE(0 10 0.000035 0.000000025 0.000000025 0.000024 0.00005)
SYMBOL res 960 336 R90
WINDOW 0 0 56 VBottom 2
WINDOW 3 32 56 VTop 2
SYMATTR InstName R1
SYMATTR Value 0
SYMBOL irf540n 720 -48 R0
SYMATTR InstName U6
SYMBOL irf540n 720 192 R0
SYMATTR InstName U7
SYMBOL irf540n 1040 -48 R0
SYMATTR InstName U8
SYMBOL voltage 928 496 R270
WINDOW 0 32 56 VTop 2
WINDOW 3 -71 39 VTop 2
WINDOW 123 0 0 Left 0
WINDOW 39 0 0 Left 0
SYMATTR InstName V1
SYMATTR Value PULSE(0 10 0.00001 0.000000025 0.000000025 0.000024 0.00005)
SYMBOL res 960 480 R90
WINDOW 0 0 56 VBottom 2
WINDOW 3 32 56 VTop 2
SYMATTR InstName R4
SYMATTR Value 0
SYMBOL voltage -256 368 R270
WINDOW 0 32 56 VTop 2
WINDOW 3 -33 172 VBottom 2
WINDOW 123 0 0 Left 0
WINDOW 39 0 0 Left 0
SYMATTR InstName V4
SYMATTR Value PULSE(0 10 0 0.000000025 0.000000025 0.000024 0.00005)
SYMBOL res -224 352 R90
WINDOW 0 0 56 VBottom 2
WINDOW 3 32 56 VTop 2
SYMATTR InstName R2
SYMATTR Value 0
SYMBOL voltage -256 512 R270
WINDOW 0 32 56 VTop 2
WINDOW 3 -33 172 VBottom 2
WINDOW 123 0 0 Left 0
WINDOW 39 0 0 Left 0
SYMATTR InstName V5
SYMATTR Value PULSE(0 10 0.000025 0.000000025 0.000000025 0.000024 0.00005)
SYMBOL res -224 496 R90
WINDOW 0 0 56 VBottom 2
WINDOW 3 32 56 VTop 2
SYMATTR InstName R5
SYMATTR Value 0
SYMBOL ind2 208 128 R180
WINDOW 0 36 80 Left 2
WINDOW 3 36 40 Left 2
SYMATTR InstName L1
SYMATTR Value 0.6m
SYMATTR Type ind
SYMBOL ind2 320 128 R180
WINDOW 0 -31 72 Left 2
WINDOW 3 -59 38 Left 2
SYMATTR InstName L2
SYMATTR Value 0.6m
SYMATTR Type ind
SYMBOL ind 16 48 R270
WINDOW 0 32 56 VTop 2
WINDOW 3 5 56 VBottom 2
SYMATTR InstName L3
SYMATTR Value 250µ
SYMBOL Misc\\battery 1328 0 R0
WINDOW 123 0 0 Left 0
WINDOW 39 0 0 Left 0
SYMATTR InstName V6
SYMATTR Value 48
SYMBOL voltage -656 32 R0
WINDOW 123 0 0 Left 0
WINDOW 39 0 0 Left 0
SYMATTR InstName V3
SYMATTR Value 60
SYMBOL cap 1200 16 R0
SYMATTR InstName C1
SYMATTR Value 270µ
SYMATTR SpiceLine V=80 Rser=50m
SYMBOL cap 464 16 R90
WINDOW 0 0 32 VBottom 2
WINDOW 3 32 32 VTop 2
SYMATTR InstName C2
SYMATTR Value 68µ
SYMBOL cap 32 16 R90
WINDOW 0 0 32 VBottom 2
WINDOW 3 32 32 VTop 2
SYMATTR InstName C3
SYMATTR Value 68µ
SYMBOL cap -528 48 R0
SYMATTR InstName C4
SYMATTR Value 350µ
SYMATTR SpiceLine V=80 Rser=50m
TEXT 216 472 Left 2 !.tran 10ms
TEXT 176 168 Left 2 !K1 L1 L2 1
